Circuit: * F:\Users\Aaron\Documents\UAkron\2019-20\Phys Elec\Project 3\AudioAmplifier.asc

Direct Newton iteration for .op point succeeded.
.step vsig=0.002828
.step vsig=0.00356024
.step vsig=0.00448208
.step vsig=0.0056426
.step vsig=0.00710361
.step vsig=0.00894292
.step vsig=0.0112585
.step vsig=0.0141736
.step vsig=0.0178435
.step vsig=0.0224636
.step vsig=0.02828
.step vsig=0.0356024
.step vsig=0.0448208
.step vsig=0.056426
.step vsig=0.0710361
.step vsig=0.0894292
.step vsig=0.112585
.step vsig=0.141736
.step vsig=0.178435
.step vsig=0.224636
.step vsig=0.2828


Measurement: voutp
  step	PP(0.5*v(out))	FROM	TO
     1	0.0282959	0	0.0114667
     2	0.0356223	0	0.0114667
     3	0.0448458	0	0.0114667
     4	0.0564574	0	0.0114667
     5	0.0710754	0	0.0114667
     6	0.0894781	0	0.0114667
     7	0.112645	0	0.0114667
     8	0.14181	0	0.0114667
     9	0.178524	0	0.0114667
    10	0.22474	0	0.0114667
    11	0.282914	0	0.0114667
    12	0.356135	0	0.0114667
    13	0.44828	0	0.0114667
    14	0.564216	0	0.0114667
    15	0.710027	0	0.0114667
    16	0.893245	0	0.0114667
    17	1.12364	0	0.0114667
    18	1.41159	0	0.0114667
    19	1.76746	0	0.0114667
    20	2.11489	0	0.0114667
    21	2.37917	0	0.0114667

Measurement: gain
  step	PP(0.5*v(out)/vsig)	FROM	TO
     1	10.0056	0	0.0114667
     2	10.0056	0	0.0114667
     3	10.0056	0	0.0114667
     4	10.0056	0	0.0114667
     5	10.0055	0	0.0114667
     6	10.0055	0	0.0114667
     7	10.0054	0	0.0114667
     8	10.0052	0	0.0114667
     9	10.005	0	0.0114667
    10	10.0046	0	0.0114667
    11	10.004	0	0.0114667
    12	10.0031	0	0.0114667
    13	10.0016	0	0.0114667
    14	9.99921	0	0.0114667
    15	9.99529	0	0.0114667
    16	9.98829	0	0.0114667
    17	9.98036	0	0.0114667
    18	9.95933	0	0.0114667
    19	9.90538	0	0.0114667
    20	9.41476	0	0.0114667
    21	8.41292	0	0.0114667


Date: Thu Dec 05 18:26:53 2019
Total elapsed time: 0.266 seconds.

tnom = 27
temp = 27
method = modified trap
totiter = 3143
traniter = 3136
tranpoints = 1220
accept = 899
rejected = 321
matrix size = 22
fillins = 0
solver = Normal
Matrix Compiler1: 1.53 KB object code size  0.4/0.2/[0.1]
Matrix Compiler2: 1.94 KB object code size  0.1/0.2/[0.1]

