Circuit: * C:\Users\Jaret\Documents\MEGAsync\School\Physical Electronics - 19\Project 3\AudioAmplifier\AudioAmplifier.asc

Direct Newton iteration for .op point succeeded.
.step vsig=0.002828
.step vsig=0.00356024
.step vsig=0.00448208
.step vsig=0.0056426
.step vsig=0.00710361
.step vsig=0.00894292
.step vsig=0.0112585
.step vsig=0.0141736
.step vsig=0.0178435
.step vsig=0.0224636
.step vsig=0.02828
.step vsig=0.0356024
.step vsig=0.0448208
.step vsig=0.056426
.step vsig=0.0710361
.step vsig=0.0894292
.step vsig=0.112585
.step vsig=0.141736
.step vsig=0.178435
.step vsig=0.224636
.step vsig=0.2828


Measurement: voutp
  step	PP(0.5*v(out))	FROM	TO
     1	0.00931203	0	0.0114667
     2	0.0117232	0	0.0114667
     3	0.0147586	0	0.0114667
     4	0.0185799	0	0.0114667
     5	0.0233907	0	0.0114667
     6	0.0294472	0	0.0114667
     7	0.0370718	0	0.0114667
     8	0.0466705	0	0.0114667
     9	0.0587545	0	0.0114667
    10	0.0739672	0	0.0114667
    11	0.0931186	0	0.0114667
    12	0.117228	0	0.0114667
    13	0.147579	0	0.0114667
    14	0.185786	0	0.0114667
    15	0.23388	0	0.0114667
    16	0.294417	0	0.0114667
    17	0.370608	0	0.0114667
    18	0.466484	0	0.0114667
    19	0.5871	0	0.0114667
    20	0.738765	0	0.0114667
    21	0.92928	0	0.0114667

Measurement: gain
  step	PP(0.5*v(out)/vsig)	FROM	TO
     1	3.2928	0	0.0114667
     2	3.2928	0	0.0114667
     3	3.2928	0	0.0114667
     4	3.2928	0	0.0114667
     5	3.29279	0	0.0114667
     6	3.29279	0	0.0114667
     7	3.29279	0	0.0114667
     8	3.29278	0	0.0114667
     9	3.29277	0	0.0114667
    10	3.29276	0	0.0114667
    11	3.29274	0	0.0114667
    12	3.2927	0	0.0114667
    13	3.29264	0	0.0114667
    14	3.29255	0	0.0114667
    15	3.29241	0	0.0114667
    16	3.29218	0	0.0114667
    17	3.29181	0	0.0114667
    18	3.29123	0	0.0114667
    19	3.29028	0	0.0114667
    20	3.28872	0	0.0114667
    21	3.286	0	0.0114667


Date: Thu Dec 05 17:19:25 2019
Total elapsed time: 0.456 seconds.

tnom = 27
temp = 27
method = modified trap
totiter = 1995
traniter = 1988
tranpoints = 979
accept = 753
rejected = 226
matrix size = 23
fillins = 0
solver = Normal
Matrix Compiler1:      92 opcodes  0.4/[0.2]/0.2
Matrix Compiler2: off  [0.2]/0.3/0.2

