Circuit: * F:\Users\Aaron\Documents\UAkron\2019-20\Phys Elec\Project 3\AudioAmplifier.asc

Direct Newton iteration for .op point succeeded.
.step vsig=0.002828
.step vsig=0.00299557
.step vsig=0.00317307
.step vsig=0.00336108
.step vsig=0.00356024
.step vsig=0.0037712
.step vsig=0.00399466
.step vsig=0.00423135
.step vsig=0.00448208
.step vsig=0.00474766
.step vsig=0.00502897
.step vsig=0.00532696
.step vsig=0.0056426
.step vsig=0.00597695
.step vsig=0.0063311
.step vsig=0.00670624
.step vsig=0.00710361
.step vsig=0.00752453
.step vsig=0.00797039
.step vsig=0.00844266
.step vsig=0.00894292
.step vsig=0.00947282
.step vsig=0.0100341
.step vsig=0.0106287
.step vsig=0.0112585
.step vsig=0.0119256
.step vsig=0.0126322
.step vsig=0.0133807
.step vsig=0.0141736
.step vsig=0.0150134
.step vsig=0.015903
.step vsig=0.0168453
.step vsig=0.0178435
.step vsig=0.0189008
.step vsig=0.0200207
.step vsig=0.021207
.step vsig=0.0224636
.step vsig=0.0237947
.step vsig=0.0252046
.step vsig=0.026698
.step vsig=0.02828
.step vsig=0.0299557
.step vsig=0.0317307
.step vsig=0.0336108
.step vsig=0.0356024
.step vsig=0.037712
.step vsig=0.0399466
.step vsig=0.0423135
.step vsig=0.0448208
.step vsig=0.0474766
.step vsig=0.0502897
.step vsig=0.0532696
.step vsig=0.056426
.step vsig=0.0597695
.step vsig=0.063311
.step vsig=0.0670624
.step vsig=0.0710361
.step vsig=0.0752453
.step vsig=0.0797039
.step vsig=0.0844266
.step vsig=0.0894292
.step vsig=0.0947282
.step vsig=0.100341
.step vsig=0.106287
.step vsig=0.112585
.step vsig=0.119256
.step vsig=0.126322
.step vsig=0.133807
.step vsig=0.141736
.step vsig=0.150134
.step vsig=0.15903
.step vsig=0.168453
.step vsig=0.178435
.step vsig=0.189008
.step vsig=0.200207
.step vsig=0.21207
.step vsig=0.224636
.step vsig=0.237947
.step vsig=0.252046
.step vsig=0.26698
.step vsig=0.2828


Measurement: voutrms
  step	RMS(v(out))	FROM	TO
     1	0.0199883	0	0.0114667
     2	0.0211726	0	0.0114667
     3	0.0224272	0	0.0114667
     4	0.0237561	0	0.0114667
     5	0.0251637	0	0.0114667
     6	0.0266547	0	0.0114667
     7	0.0282341	0	0.0114667
     8	0.0299071	0	0.0114667
     9	0.0316792	0	0.0114667
    10	0.0335563	0	0.0114667
    11	0.0355446	0	0.0114667
    12	0.0376507	0	0.0114667
    13	0.0398817	0	0.0114667
    14	0.0422448	0	0.0114667
    15	0.0447479	0	0.0114667
    16	0.0473993	0	0.0114667
    17	0.0502079	0	0.0114667
    18	0.0531828	0	0.0114667
    19	0.0563341	0	0.0114667
    20	0.059672	0	0.0114667
    21	0.0632077	0	0.0114667
    22	0.0669529	0	0.0114667
    23	0.07092	0	0.0114667
    24	0.0751221	0	0.0114667
    25	0.0795732	0	0.0114667
    26	0.084288	0	0.0114667
    27	0.0892822	0	0.0114667
    28	0.0945722	0	0.0114667
    29	0.100176	0	0.0114667
    30	0.106111	0	0.0114667
    31	0.112398	0	0.0114667
    32	0.119057	0	0.0114667
    33	0.126111	0	0.0114667
    34	0.133583	0	0.0114667
    35	0.141498	0	0.0114667
    36	0.149881	0	0.0114667
    37	0.15876	0	0.0114667
    38	0.168166	0	0.0114667
    39	0.178129	0	0.0114667
    40	0.188681	0	0.0114667
    41	0.199859	0	0.0114667
    42	0.211698	0	0.0114667
    43	0.224238	0	0.0114667
    44	0.23752	0	0.0114667
    45	0.251589	0	0.0114667
    46	0.266491	0	0.0114667
    47	0.282274	0	0.0114667
    48	0.29899	0	0.0114667
    49	0.316696	0	0.0114667
    50	0.335449	0	0.0114667
    51	0.35531	0	0.0114667
    52	0.376346	0	0.0114667
    53	0.398625	0	0.0114667
    54	0.422219	0	0.0114667
    55	0.447206	0	0.0114667
    56	0.473668	0	0.0114667
    57	0.501691	0	0.0114667
    58	0.531365	0	0.0114667
    59	0.562787	0	0.0114667
    60	0.596059	0	0.0114667
    61	0.631332	0	0.0114667
    62	0.668603	0	0.0114667
    63	0.708111	0	0.0114667
    64	0.749924	0	0.0114667
    65	0.794175	0	0.0114667
    66	0.840978	0	0.0114667
    67	0.890502	0	0.0114667
    68	0.94289	0	0.0114667
    69	0.998303	0	0.0114667
    70	1.05694	0	0.0114667
    71	1.11877	0	0.0114667
    72	1.18405	0	0.0114667
    73	1.25275	0	0.0114667
    74	1.32478	0	0.0114667
    75	1.39926	0	0.0114667
    76	1.47148	0	0.0114667
    77	1.53679	0	0.0114667
    78	1.59866	0	0.0114667
    79	1.65893	0	0.0114667
    80	1.71837	0	0.0114667
    81	1.77762	0	0.0114667

Measurement: gain
  step	PP(0.5*v(out)/vsig)	FROM	TO
     1	10.0056	0	0.0114667
     2	10.0056	0	0.0114667
     3	10.0056	0	0.0114667
     4	10.0056	0	0.0114667
     5	10.0056	0	0.0114667
     6	10.0056	0	0.0114667
     7	10.0056	0	0.0114667
     8	10.0056	0	0.0114667
     9	10.0056	0	0.0114667
    10	10.0056	0	0.0114667
    11	10.0056	0	0.0114667
    12	10.0056	0	0.0114667
    13	10.0056	0	0.0114667
    14	10.0056	0	0.0114667
    15	10.0055	0	0.0114667
    16	10.0055	0	0.0114667
    17	10.0055	0	0.0114667
    18	10.0055	0	0.0114667
    19	10.0055	0	0.0114667
    20	10.0055	0	0.0114667
    21	10.0055	0	0.0114667
    22	10.0054	0	0.0114667
    23	10.0054	0	0.0114667
    24	10.0054	0	0.0114667
    25	10.0054	0	0.0114667
    26	10.0053	0	0.0114667
    27	10.0053	0	0.0114667
    28	10.0053	0	0.0114667
    29	10.0052	0	0.0114667
    30	10.0052	0	0.0114667
    31	10.0051	0	0.0114667
    32	10.0051	0	0.0114667
    33	10.005	0	0.0114667
    34	10.0049	0	0.0114667
    35	10.0048	0	0.0114667
    36	10.0047	0	0.0114667
    37	10.0046	0	0.0114667
    38	10.0045	0	0.0114667
    39	10.0044	0	0.0114667
    40	10.0042	0	0.0114667
    41	10.004	0	0.0114667
    42	10.0038	0	0.0114667
    43	10.0036	0	0.0114667
    44	10.0034	0	0.0114667
    45	10.0031	0	0.0114667
    46	10.0028	0	0.0114667
    47	10.0025	0	0.0114667
    48	10.0021	0	0.0114667
    49	10.0016	0	0.0114667
    50	10.0011	0	0.0114667
    51	10.0006	0	0.0114667
    52	9.99993	0	0.0114667
    53	9.99921	0	0.0114667
    54	9.99841	0	0.0114667
    55	9.99749	0	0.0114667
    56	9.99646	0	0.0114667
    57	9.99529	0	0.0114667
    58	9.99396	0	0.0114667
    59	9.99245	0	0.0114667
    60	9.99068	0	0.0114667
    61	9.98829	0	0.0114667
    62	9.98728	0	0.0114667
    63	9.98515	0	0.0114667
    64	9.98395	0	0.0114667
    65	9.98036	0	0.0114667
    66	9.9717	0	0.0114667
    67	9.96863	0	0.0114667
    68	9.96487	0	0.0114667
    69	9.95933	0	0.0114667
    70	9.94646	0	0.0114667
    71	9.93994	0	0.0114667
    72	9.92528	0	0.0114667
    73	9.90538	0	0.0114667
    74	9.87251	0	0.0114667
    75	9.81117	0	0.0114667
    76	9.65341	0	0.0114667
    77	9.41476	0	0.0114667
    78	9.16385	0	0.0114667
    79	8.91008	0	0.0114667
    80	8.65975	0	0.0114667
    81	8.41292	0	0.0114667


Date: Thu Dec 05 18:55:38 2019
Total elapsed time: 1.140 seconds.

tnom = 27
temp = 27
method = modified trap
totiter = 3143
traniter = 3136
tranpoints = 1220
accept = 899
rejected = 321
matrix size = 22
fillins = 0
solver = Normal
Matrix Compiler1: 1.53 KB object code size  0.4/0.2/[0.1]
Matrix Compiler2: 1.94 KB object code size  0.1/0.2/[0.1]

