Circuit: * C:\Users\Jaret\Documents\MEGAsync\School\Physical Electronics - 19\Project 3\AudioAmplifier\OutputStage(1).asc

Direct Newton iteration for .op point succeeded.
.step vsig=0.002828
.step vsig=0.00356024
.step vsig=0.00448208
.step vsig=0.0056426
.step vsig=0.00710361
.step vsig=0.00894292
.step vsig=0.0112585
.step vsig=0.0141736
.step vsig=0.0178435
.step vsig=0.0224636
.step vsig=0.02828
.step vsig=0.0356024
.step vsig=0.0448208
.step vsig=0.056426
.step vsig=0.0710361
.step vsig=0.0894292
.step vsig=0.112585
.step vsig=0.141736
.step vsig=0.178435
.step vsig=0.224636
.step vsig=0.2828
.step vsig=0.356024
.step vsig=0.448208
.step vsig=0.56426
.step vsig=0.710361
.step vsig=0.894292
.step vsig=1.12585
.step vsig=1.41736
.step vsig=1.78435
.step vsig=2.24636
.step vsig=2.828


Measurement: voutrms
  step	RMS(v(out))	FROM	TO
     1	0.00183583	0	0.0114667
     2	0.00231118	0	0.0114667
     3	0.0029096	0	0.0114667
     4	0.00366297	0	0.0114667
     5	0.0046114	0	0.0114667
     6	0.00580541	0	0.0114667
     7	0.00730858	0	0.0114667
     8	0.00920096	0	0.0114667
     9	0.0115833	0	0.0114667
    10	0.0145825	0	0.0114667
    11	0.0183583	0	0.0114667
    12	0.0231117	0	0.0114667
    13	0.0290959	0	0.0114667
    14	0.0366296	0	0.0114667
    15	0.0461139	0	0.0114667
    16	0.0580538	0	0.0114667
    17	0.0730851	0	0.0114667
    18	0.0920082	0	0.0114667
    19	0.11583	0	0.0114667
    20	0.14582	0	0.0114667
    21	0.183572	0	0.0114667
    22	0.231095	0	0.0114667
    23	0.290914	0	0.0114667
    24	0.366205	0	0.0114667
    25	0.460953	0	0.0114667
    26	0.580157	0	0.0114667
    27	0.730048	0	0.0114667
    28	0.91831	0	0.0114667
    29	1.15395	0	0.0114667
    30	1.43923	0	0.0114667
    31	1.7076	0	0.0114667

Measurement: gain
  step	PP(0.5*v(out)/vsig)	FROM	TO
     1	0.918432	0	0.0114667
     2	0.918432	0	0.0114667
     3	0.918432	0	0.0114667
     4	0.918432	0	0.0114667
     5	0.918432	0	0.0114667
     6	0.918432	0	0.0114667
     7	0.918431	0	0.0114667
     8	0.918431	0	0.0114667
     9	0.918431	0	0.0114667
    10	0.918431	0	0.0114667
    11	0.918431	0	0.0114667
    12	0.918431	0	0.0114667
    13	0.91843	0	0.0114667
    14	0.918429	0	0.0114667
    15	0.918427	0	0.0114667
    16	0.918425	0	0.0114667
    17	0.918421	0	0.0114667
    18	0.918414	0	0.0114667
    19	0.918403	0	0.0114667
    20	0.918386	0	0.0114667
    21	0.918358	0	0.0114667
    22	0.918314	0	0.0114667
    23	0.918244	0	0.0114667
    24	0.918128	0	0.0114667
    25	0.917938	0	0.0114667
    26	0.917616	0	0.0114667
    27	0.917093	0	0.0114667
    28	0.915973	0	0.0114667
    29	0.913273	0	0.0114667
    30	0.89307	0	0.0114667
    31	0.803527	0	0.0114667


Date: Thu Dec 05 16:58:03 2019
Total elapsed time: 0.575 seconds.

tnom = 27
temp = 27
method = modified trap
totiter = 2893
traniter = 2886
tranpoints = 1116
accept = 834
rejected = 282
matrix size = 17
fillins = 0
solver = Normal
Matrix Compiler1: 1016 bytes object code size  0.2/0.2/[0.1]
Matrix Compiler2: off  [0.1]/0.2/0.1

