Circuit: * F:\Users\Aaron\Documents\UAkron\2019-20\Phys Elec\Project 3\OutputStage(1).asc

Direct Newton iteration for .op point succeeded.
.step vsig=0.002828
.step vsig=0.00356024
.step vsig=0.00448208
.step vsig=0.0056426
.step vsig=0.00710361
.step vsig=0.00894292
.step vsig=0.0112585
.step vsig=0.0141736
.step vsig=0.0178435
.step vsig=0.0224636
.step vsig=0.02828
.step vsig=0.0356024
.step vsig=0.0448208
.step vsig=0.056426
.step vsig=0.0710361
.step vsig=0.0894292
.step vsig=0.112585
.step vsig=0.141736
.step vsig=0.178435
.step vsig=0.224636
.step vsig=0.2828
.step vsig=0.356024
.step vsig=0.448208
.step vsig=0.56426
.step vsig=0.710361
.step vsig=0.894292
.step vsig=1.12585
.step vsig=1.41736
.step vsig=1.78435
.step vsig=2.24636
.step vsig=2.828


Measurement: voutrms
  step	RMS(v(out))	FROM	TO
     1	0.00183855	0	0.0114667
     2	0.00231459	0	0.0114667
     3	0.0029139	0	0.0114667
     4	0.00366838	0	0.0114667
     5	0.00461822	0	0.0114667
     6	0.005814	0	0.0114667
     7	0.00731939	0	0.0114667
     8	0.00921456	0	0.0114667
     9	0.0116004	0	0.0114667
    10	0.0146041	0	0.0114667
    11	0.0183855	0	0.0114667
    12	0.0231459	0	0.0114667
    13	0.029139	0	0.0114667
    14	0.0366837	0	0.0114667
    15	0.046182	0	0.0114667
    16	0.0581396	0	0.0114667
    17	0.0731931	0	0.0114667
    18	0.0921442	0	0.0114667
    19	0.116002	0	0.0114667
    20	0.146035	0	0.0114667
    21	0.183843	0	0.0114667
    22	0.231436	0	0.0114667
    23	0.291344	0	0.0114667
    24	0.366746	0	0.0114667
    25	0.461634	0	0.0114667
    26	0.581012	0	0.0114667
    27	0.731121	0	0.0114667
    28	0.919653	0	0.0114667
    29	1.15561	0	0.0114667
    30	1.44078	0	0.0114667
    31	1.70862	0	0.0114667

Measurement: gain
  step	PP(0.5*v(out)/vsig)	FROM	TO
     1	0.919789	0	0.0114667
     2	0.919789	0	0.0114667
     3	0.919789	0	0.0114667
     4	0.919789	0	0.0114667
     5	0.919789	0	0.0114667
     6	0.919789	0	0.0114667
     7	0.919789	0	0.0114667
     8	0.919789	0	0.0114667
     9	0.919789	0	0.0114667
    10	0.919789	0	0.0114667
    11	0.919789	0	0.0114667
    12	0.919788	0	0.0114667
    13	0.919788	0	0.0114667
    14	0.919787	0	0.0114667
    15	0.919785	0	0.0114667
    16	0.919782	0	0.0114667
    17	0.919778	0	0.0114667
    18	0.919771	0	0.0114667
    19	0.919761	0	0.0114667
    20	0.919743	0	0.0114667
    21	0.919716	0	0.0114667
    22	0.919671	0	0.0114667
    23	0.9196	0	0.0114667
    24	0.919483	0	0.0114667
    25	0.919291	0	0.0114667
    26	0.918967	0	0.0114667
    27	0.918438	0	0.0114667
    28	0.917305	0	0.0114667
    29	0.914586	0	0.0114667
    30	0.893386	0	0.0114667
    31	0.803703	0	0.0114667


Date: Thu Dec 05 18:19:47 2019
Total elapsed time: 0.662 seconds.

tnom = 27
temp = 27
method = modified trap
totiter = 2818
traniter = 2811
tranpoints = 1101
accept = 831
rejected = 270
matrix size = 17
fillins = 0
solver = Normal
Matrix Compiler1: 1016 bytes object code size  0.3/0.1/[0.1]
Matrix Compiler2: off  [0.1]/0.1/0.1

