Circuit: * F:\Users\Aaron\Documents\UAkron\2019-20\Phys Elec\Project 3\OutputStage(1).asc

Direct Newton iteration for .op point succeeded.
.step vsig=0.002828
.step vsig=0.00356024
.step vsig=0.00448208
.step vsig=0.0056426
.step vsig=0.00710361
.step vsig=0.00894292
.step vsig=0.0112585
.step vsig=0.0141736
.step vsig=0.0178435
.step vsig=0.0224636
.step vsig=0.02828
.step vsig=0.0356024
.step vsig=0.0448208
.step vsig=0.056426
.step vsig=0.0710361
.step vsig=0.0894292
.step vsig=0.112585
.step vsig=0.141736
.step vsig=0.178435
.step vsig=0.224636
.step vsig=0.2828
.step vsig=0.356024
.step vsig=0.448208
.step vsig=0.56426
.step vsig=0.710361
.step vsig=0.894292
.step vsig=1.12585
.step vsig=1.41736
.step vsig=1.78435
.step vsig=2.24636
.step vsig=2.828


Measurement: voutrms
  step	RMS(v(out))	FROM	TO
     1	0.00187612	0	0.0114667
     2	0.0023619	0	0.0114667
     3	0.00297345	0	0.0114667
     4	0.00374335	0	0.0114667
     5	0.0047126	0	0.0114667
     6	0.00593281	0	0.0114667
     7	0.00746896	0	0.0114667
     8	0.00940287	0	0.0114667
     9	0.0118375	0	0.0114667
    10	0.0149025	0	0.0114667
    11	0.0187611	0	0.0114667
    12	0.0236188	0	0.0114667
    13	0.0297343	0	0.0114667
    14	0.0374331	0	0.0114667
    15	0.0471252	0	0.0114667
    16	0.0593265	0	0.0114667
    17	0.0746864	0	0.0114667
    18	0.0940223	0	0.0114667
    19	0.118362	0	0.0114667
    20	0.149	0	0.0114667
    21	0.187561	0	0.0114667
    22	0.236086	0	0.0114667
    23	0.297135	0	0.0114667
    24	0.3739	0	0.0114667
    25	0.470336	0	0.0114667
    26	0.591208	0	0.0114667
    27	0.741581	0	0.0114667
    28	0.915111	0	0.0114667
    29	1.07959	0	0.0114667
    30	1.26659	0	0.0114667
    31	1.49711	0	0.0114667

Measurement: gain
  step	PP(0.5*v(out)/vsig)	FROM	TO
     1	0.938588	0	0.0114667
     2	0.938588	0	0.0114667
     3	0.938588	0	0.0114667
     4	0.938587	0	0.0114667
     5	0.938587	0	0.0114667
     6	0.938587	0	0.0114667
     7	0.938586	0	0.0114667
     8	0.938586	0	0.0114667
     9	0.938585	0	0.0114667
    10	0.938585	0	0.0114667
    11	0.938583	0	0.0114667
    12	0.938582	0	0.0114667
    13	0.938579	0	0.0114667
    14	0.938574	0	0.0114667
    15	0.938566	0	0.0114667
    16	0.938554	0	0.0114667
    17	0.938535	0	0.0114667
    18	0.938504	0	0.0114667
    19	0.938456	0	0.0114667
    20	0.938377	0	0.0114667
    21	0.938251	0	0.0114667
    22	0.938044	0	0.0114667
    23	0.937702	0	0.0114667
    24	0.937118	0	0.0114667
    25	0.936107	0	0.0114667
    26	0.933992	0	0.0114667
    27	0.92842	0	0.0114667
    28	0.887753	0	0.0114667
    29	0.799825	0	0.0114667
    30	0.729136	0	0.0114667
    31	0.672267	0	0.0114667


Date: Thu Dec 05 23:30:31 2019
Total elapsed time: 0.416 seconds.

tnom = 27
temp = 27
method = modified trap
totiter = 3207
traniter = 3202
tranpoints = 1243
accept = 882
rejected = 361
matrix size = 17
fillins = 0
solver = Normal
Matrix Compiler1: 1016 bytes object code size  0.3/0.1/[0.1]
Matrix Compiler2: off  [0.1]/0.1/0.1

