Circuit: * F:\Users\Aaron\Documents\UAkron\2019-20\Phys Elec\Project 3\VoltageGainStage.asc

Direct Newton iteration for .op point succeeded.
.step vsig=0.002828
.step vsig=0.00356024
.step vsig=0.00448208
.step vsig=0.0056426
.step vsig=0.00710361
.step vsig=0.00894292
.step vsig=0.0112585
.step vsig=0.0141736
.step vsig=0.0178435
.step vsig=0.0224636
.step vsig=0.02828
.step vsig=0.0356024
.step vsig=0.0448208
.step vsig=0.056426
.step vsig=0.0710361
.step vsig=0.0894292
.step vsig=0.112585
.step vsig=0.141736
.step vsig=0.178435
.step vsig=0.224636
.step vsig=0.2828


Measurement: voutrms
  step	RMS(v(out))	FROM	TO
     1	0.0212319	0	0.0114667
     2	0.0267293	0	0.0114667
     3	0.0336502	0	0.0114667
     4	0.0423631	0	0.0114667
     5	0.0533319	0	0.0114667
     6	0.0671408	0	0.0114667
     7	0.084525	0	0.0114667
     8	0.10641	0	0.0114667
     9	0.133962	0	0.0114667
    10	0.168646	0	0.0114667
    11	0.21231	0	0.0114667
    12	0.267276	0	0.0114667
    13	0.336467	0	0.0114667
    14	0.423561	0	0.0114667
    15	0.533181	0	0.0114667
    16	0.671133	0	0.0114667
    17	0.844701	0	0.0114667
    18	1.063	0	0.0114667
    19	1.33741	0	0.0114667
    20	1.68189	0	0.0114667
    21	2.11353	0	0.0114667

Measurement: gain
  step	PP(0.5*v(out)/vsig)	FROM	TO
     1	10.6275	0	0.0114667
     2	10.6275	0	0.0114667
     3	10.6275	0	0.0114667
     4	10.6275	0	0.0114667
     5	10.6274	0	0.0114667
     6	10.6274	0	0.0114667
     7	10.6274	0	0.0114667
     8	10.6273	0	0.0114667
     9	10.6272	0	0.0114667
    10	10.6271	0	0.0114667
    11	10.6269	0	0.0114667
    12	10.6266	0	0.0114667
    13	10.6261	0	0.0114667
    14	10.6252	0	0.0114667
    15	10.6239	0	0.0114667
    16	10.6218	0	0.0114667
    17	10.6183	0	0.0114667
    18	10.6129	0	0.0114667
    19	10.6036	0	0.0114667
    20	10.589	0	0.0114667
    21	10.5638	0	0.0114667


Date: Wed Dec 04 19:55:49 2019
Total elapsed time: 0.326 seconds.

tnom = 27
temp = 27
method = modified trap
totiter = 2076
traniter = 2072
tranpoints = 1021
accept = 755
rejected = 266
matrix size = 13
fillins = 0
solver = Normal
Matrix Compiler1: 710 bytes object code size  0.2/0.1/[0.1]
Matrix Compiler2: 1.04 KB object code size  0.1/0.1/[0.1]

