Circuit: * F:\Users\Aaron\Documents\UAkron\2019-20\Phys Elec\Project 3\VoltageGainStage.asc

Direct Newton iteration for .op point succeeded.
.step vsig=0.002828
.step vsig=0.00356024
.step vsig=0.00448208
.step vsig=0.0056426
.step vsig=0.00710361
.step vsig=0.00894292
.step vsig=0.0112585
.step vsig=0.0141736
.step vsig=0.0178435
.step vsig=0.0224636
.step vsig=0.02828
.step vsig=0.0356024
.step vsig=0.0448208
.step vsig=0.056426
.step vsig=0.0710361
.step vsig=0.0894292
.step vsig=0.112585
.step vsig=0.141736
.step vsig=0.178435
.step vsig=0.224636
.step vsig=0.2828


Measurement: voutrms
  step	RMS(v(out))	FROM	TO
     1	0.00202625	0	0.0114667
     2	0.00255094	0	0.0114667
     3	0.00321145	0	0.0114667
     4	0.00404297	0	0.0114667
     5	0.00508976	0	0.0114667
     6	0.00640753	0	0.0114667
     7	0.00806641	0	0.0114667
     8	0.0101546	0	0.0114667
     9	0.0127831	0	0.0114667
    10	0.0160914	0	0.0114667
    11	0.0202548	0	0.0114667
    12	0.0254932	0	0.0114667
    13	0.0320817	0	0.0114667
    14	0.0403636	0	0.0114667
    15	0.0507643	0	0.0114667
    16	0.0638045	0	0.0114667
    17	0.080107	0	0.0114667
    18	0.100373	0	0.0114667
    19	0.125258	0	0.0114667
    20	0.154842	0	0.0114667
    21	0.186711	0	0.0114667

Measurement: gain
  step	PP(0.5*v(out)/vsig)	FROM	TO
     1	1.01377	0	0.0114667
     2	1.01376	0	0.0114667
     3	1.01376	0	0.0114667
     4	1.01375	0	0.0114667
     5	1.01374	0	0.0114667
     6	1.01371	0	0.0114667
     7	1.01368	0	0.0114667
     8	1.01363	0	0.0114667
     9	1.01354	0	0.0114667
    10	1.01342	0	0.0114667
    11	1.01321	0	0.0114667
    12	1.01289	0	0.0114667
    13	1.01237	0	0.0114667
    14	1.01155	0	0.0114667
    15	1.01022	0	0.0114667
    16	1.00803	0	0.0114667
    17	1.00435	0	0.0114667
    18	0.997867	0	0.0114667
    19	0.985578	0	0.0114667
    20	0.959296	0	0.0114667
    21	0.898411	0	0.0114667


Date: Tue Dec 03 19:40:14 2019
Total elapsed time: 0.234 seconds.

tnom = 27
temp = 27
method = modified trap
totiter = 2418
traniter = 2411
tranpoints = 1012
accept = 751
rejected = 261
matrix size = 13
fillins = 0
solver = Normal
Matrix Compiler1: 710 bytes object code size  0.2/0.1/[0.1]
Matrix Compiler2: 1.04 KB object code size  0.1/0.1/[0.1]

