Circuit: * F:\Users\Aaron\Documents\UAkron\2019-20\Phys Elec\Project 3\VoltageGainStage.asc

Direct Newton iteration for .op point succeeded.
.step vsig=0.002828
.step vsig=0.00356024
.step vsig=0.00448208
.step vsig=0.0056426
.step vsig=0.00710361
.step vsig=0.00894292
.step vsig=0.0112585
.step vsig=0.0141736
.step vsig=0.0178435
.step vsig=0.0224636
.step vsig=0.02828
.step vsig=0.0356024
.step vsig=0.0448208
.step vsig=0.056426
.step vsig=0.0710361
.step vsig=0.0894292
.step vsig=0.112585
.step vsig=0.141736
.step vsig=0.178435
.step vsig=0.224636
.step vsig=0.2828


Measurement: voutrms
  step	RMS(v(out))	FROM	TO
     1	0.000127399	0	0.0114667
     2	0.000160407	0	0.0114667
     3	0.000201953	0	0.0114667
     4	0.000254251	0	0.0114667
     5	0.000320089	0	0.0114667
     6	0.000402971	0	0.0114667
     7	0.000507312	0	0.0114667
     8	0.00063867	0	0.0114667
     9	0.000804039	0	0.0114667
    10	0.00101223	0	0.0114667
    11	0.00127432	0	0.0114667
    12	0.00160427	0	0.0114667
    13	0.00201966	0	0.0114667
    14	0.0025426	0	0.0114667
    15	0.00320094	0	0.0114667
    16	0.00402974	0	0.0114667
    17	0.00507314	0	0.0114667
    18	0.00638669	0	0.0114667
    19	0.00804036	0	0.0114667
    20	0.0101222	0	0.0114667
    21	0.012743	0	0.0114667

Measurement: gain
  step	PP(0.5*v(out)/vsig)	FROM	TO
     1	0.0637491	0	0.0114667
     2	0.0637491	0	0.0114667
     3	0.0637491	0	0.0114667
     4	0.0637491	0	0.0114667
     5	0.0637491	0	0.0114667
     6	0.0637491	0	0.0114667
     7	0.0637491	0	0.0114667
     8	0.0637491	0	0.0114667
     9	0.0637491	0	0.0114667
    10	0.0637491	0	0.0114667
    11	0.0637491	0	0.0114667
    12	0.0637491	0	0.0114667
    13	0.0637491	0	0.0114667
    14	0.0637491	0	0.0114667
    15	0.0637491	0	0.0114667
    16	0.063749	0	0.0114667
    17	0.063749	0	0.0114667
    18	0.0637489	0	0.0114667
    19	0.0637487	0	0.0114667
    20	0.0637485	0	0.0114667
    21	0.0637482	0	0.0114667


Date: Tue Dec 03 17:54:40 2019
Total elapsed time: 0.414 seconds.

tnom = 27
temp = 27
method = modified trap
totiter = 2141
traniter = 2136
tranpoints = 1069
accept = 751
rejected = 318
matrix size = 13
fillins = 0
solver = Normal
Matrix Compiler1: 710 bytes object code size  0.2/0.1/[0.1]
Matrix Compiler2: 1.04 KB object code size  0.1/0.1/[0.1]

