Circuit: * F:\Users\Aaron\Documents\UAkron\2019-20\Phys Elec\Project 3\VoltageGainStage.asc

Direct Newton iteration for .op point succeeded.
.step vsig=0.002828
.step vsig=0.00356024
.step vsig=0.00448208
.step vsig=0.0056426
.step vsig=0.00710361
.step vsig=0.00894292
.step vsig=0.0112585
.step vsig=0.0141736
.step vsig=0.0178435
.step vsig=0.0224636
.step vsig=0.02828
.step vsig=0.0356024
.step vsig=0.0448208
.step vsig=0.056426
.step vsig=0.0710361
.step vsig=0.0894292
.step vsig=0.112585
.step vsig=0.141736
.step vsig=0.178435
.step vsig=0.224636
.step vsig=0.2828


Measurement: voutrms
  step	RMS(v(out))	FROM	TO
     1	0.0667311	0	0.0114667
     2	0.0840079	0	0.0114667
     3	0.105756	0	0.0114667
     4	0.133133	0	0.0114667
     5	0.167591	0	0.0114667
     6	0.210959	0	0.0114667
     7	0.265531	0	0.0114667
     8	0.334182	0	0.0114667
     9	0.420507	0	0.0114667
    10	0.528981	0	0.0114667
    11	0.665136	0	0.0114667
    12	0.835718	0	0.0114667
    13	1.04877	0	0.0114667
    14	1.31352	0	0.0114667
    15	1.6392	0	0.0114667
    16	2.03306	0	0.0114667
    17	2.492	0	0.0114667
    18	2.99008	0	0.0114667
    19	3.32906	0	0.0114667
    20	3.5207	0	0.0114667
    21	3.64125	0	0.0114667

Measurement: gain
  step	PP(0.5*v(out)/vsig)	FROM	TO
     1	33.3905	0	0.0114667
     2	33.3897	0	0.0114667
     3	33.3884	0	0.0114667
     4	33.3865	0	0.0114667
     5	33.3833	0	0.0114667
     6	33.3783	0	0.0114667
     7	33.3702	0	0.0114667
     8	33.3573	0	0.0114667
     9	33.3369	0	0.0114667
    10	33.3043	0	0.0114667
    11	33.2522	0	0.0114667
    12	33.1685	0	0.0114667
    13	33.0327	0	0.0114667
    14	32.8094	0	0.0114667
    15	32.4366	0	0.0114667
    16	31.7957	0	0.0114667
    17	30.6747	0	0.0114667
    18	28.7447	0	0.0114667
    19	23.5681	0	0.0114667
    20	18.8077	0	0.0114667
    21	14.9427	0	0.0114667


Date: Wed Dec 04 18:31:23 2019
Total elapsed time: 0.377 seconds.

tnom = 27
temp = 27
method = modified trap
totiter = 5035
traniter = 5027
tranpoints = 1938
accept = 1418
rejected = 520
matrix size = 13
fillins = 0
solver = Normal
Matrix Compiler1: 710 bytes object code size  0.2/0.1/[0.1]
Matrix Compiler2: 1.04 KB object code size  0.1/0.1/[0.1]

